<?xml version="1.0" encoding="UTF-8"?>

<!-- generated on 2025-07-16 13:44:48.286325 by osmWebWizard.py UNKNOWN
<configuration>
    <net-file value="/home/tongadm/Sumo/2025-07-16-13-44-41/osm.net.xml.gz"/>
    <output-trip-file value="/home/tongadm/Sumo/2025-07-16-13-44-41/osm.passenger.trips.xml"/>
    <route-file value="/home/tongadm/Sumo/2025-07-16-13-44-41/osm.passenger.rou.xml"/>
    <prefix value="veh"/>
    <trip-attributes value="departLane=&quot;best&quot;"/>
    <fringe-start-attributes value="departSpeed=&quot;max&quot;"/>
    <vehicle-class value="passenger"/>
    <lanes value="True"/>
    <fringe-factor value="5"/>
    <allow-fringe.min-length value="1000.0"/>
    <edge-permission value="passenger"/>
    <via-edge-types value="highway.motorway,highway.motorway_link,highway.trunk_link,highway.primary_link,highway.secondary_link,highway.tertiary_link"/>
    <min-distance value="300.0"/>
    <min-distance.fringe value="10.0"/>
    <remove-loops value="True"/>
    <validate value="True"/>
    <insertion-density value="12.0"/>
</configuration>
-->

<!-- generated on 2025-07-16 13:44:48 by Eclipse SUMO duarouter Version 1.23.1
<duarouterConfiguration xmlns:xsi="http://www.w3.org/2001/XMLSchema-instance" xsi:noNamespaceSchemaLocation="http://sumo.dlr.de/xsd/duarouterConfiguration.xsd">

    <input>
        <net-file value="/home/tongadm/Sumo/2025-07-16-13-44-41/osm.net.xml.gz"/>
        <route-files value="/home/tongadm/Sumo/2025-07-16-13-44-41/osm.passenger.trips.xml"/>
    </input>

    <output>
        <output-file value="/home/tongadm/Sumo/2025-07-16-13-44-41/osm.passenger.trips.xml.tmp"/>
        <alternatives-output value="NUL"/>
        <write-trips value="true"/>
    </output>

    <processing>
        <remove-loops value="true"/>
    </processing>

    <time>
        <begin value="0.0"/>
        <end value="3600.0"/>
    </time>

    <report>
        <no-warnings value="true"/>
        <ignore-errors value="true"/>
        <no-step-log value="true"/>
    </report>

</duarouterConfiguration>
-->

<routes xmlns:xsi="http://www.w3.org/2001/XMLSchema-instance" xsi:noNamespaceSchemaLocation="http://sumo.dlr.de/xsd/routes_file.xsd">
    <vType id="veh_passenger" vClass="passenger"/>
    <trip id="veh0" type="veh_passenger" depart="0.00" departLane="best" departSpeed="max" from="33288234#0" to="-33288234#0" via="-33288234#1"/>
    <trip id="veh1" type="veh_passenger" depart="519.39" departLane="best" departSpeed="max" from="-62324046" to="62324046" via="33288234#1"/>
    <trip id="veh2" type="veh_passenger" depart="1038.78" departLane="best" departSpeed="max" from="33288234#0" to="-33288234#1" via="-33288234#1"/>
    <trip id="veh3" type="veh_passenger" depart="1558.17" departLane="best" departSpeed="max" from="33288234#0" to="62324046" via="-33288234#1"/>
    <trip id="veh4" type="veh_passenger" depart="2077.56" departLane="best" departSpeed="max" from="33288234#0" to="62324046" via="-33288234#1"/>
    <trip id="veh5" type="veh_passenger" depart="2596.95" departLane="best" departSpeed="max" from="33288234#0" to="-33288234#0" via="-33288234#1"/>
    <trip id="veh6" type="veh_passenger" depart="3116.34" departLane="best" from="-33288234#1" to="-33288234#0" via="-33288234#1"/>
</routes>
