<?xml version="1.0" encoding="UTF-8"?>

<!-- generated on 2025-07-16 14:31:00 by Eclipse SUMO polyconvert Version 1.23.1
<polyconvertConfiguration xmlns:xsi="http://www.w3.org/2001/XMLSchema-instance" xsi:noNamespaceSchemaLocation="http://sumo.dlr.de/xsd/polyconvertConfiguration.xsd">

    <input>
        <net-file value="osm_withProjParam.net.xml"/>
        <shapefile-prefixes value="street71_drp_potholes"/>
    </input>

    <output>
        <output-file value="potholes.add.xml"/>
    </output>

</polyconvertConfiguration>
-->

<additional xmlns:xsi="http://www.w3.org/2001/XMLSchema-instance"
            xsi:noNamespaceSchemaLocation="http://sumo.dlr.de/xsd/additional_file.xsd">

    <!-- projection info -->
    <location
        netOffset="-602801.75,-5625399.59"
        convBoundary="0.00,0.00,131.31,253.13"
        origBoundary="4.457947,50.771226,4.459836,50.773501"
        projParameter="+proj=utm +zone=31 +ellps=WGS84 +datum=WGS84 +units=m +no_defs"/>

    <!-- High-severity (H) → red, thick, top layer -->
    <poly id="pothole_0"
          color="red"
          fill="1"
          layer="10"
          lineWidth="2.0"
          shape="76.318032,41.025401 76.226047,41.092714 76.203087,41.190950 76.190063,41.290571 76.196672,41.399703 76.213524,41.500251 76.280609,41.591374 76.379557,41.624582 76.479799,41.617823 76.542640,41.530278 76.595418,41.442209 76.608530,41.343013 76.601573,41.243047 76.584607,41.142959 76.496144,41.090631 76.397096,41.057723"/>
    <poly id="pothole_1"
          color="red"
          fill="1"
          layer="10"
          lineWidth="2.0"
          shape="73.729688,77.052019 73.632082,77.110887 73.561892,77.193197 73.530243,77.290110 73.508521,77.388173 73.506641,77.488709 73.514708,77.590291 73.584688,77.679176 73.668142,77.739377 73.766234,77.761102 73.867866,77.753045 73.955537,77.692998 73.987186,77.596085 74.008908,77.497984 74.021887,77.388785 74.023755,77.288340 73.985919,77.183152 73.902475,77.122898 73.809105,77.061460"/>

    <!-- Low-severity (L) → yellow, thin, bottom layer -->
    <poly id="pothole_2"
          color="yellow"
          fill="1"
          layer="10"
          lineWidth="1.0"
          shape="71.131556,91.615164 71.085396,91.707182 71.038971,91.800661 71.002554,91.894198 70.975700,91.991012 70.967001,92.099344 71.000811,92.196559 71.097584,92.223558 71.180246,92.156771 71.167849,92.053138 71.242038,91.976110 71.306598,91.895948 71.252646,91.796660 71.218555,91.699544 71.151268,91.618509"/>

    <!-- Medium-severity (M) → orange, medium, mid layer -->
    <poly id="pothole_3"
          color="orange"
          fill="1"
          layer="10"
          lineWidth="1.5"
          shape="61.409850,133.813730 61.351198,133.901292 61.351695,134.001760 61.342144,134.102670 61.437942,134.151822 61.533126,134.100507 61.552631,134.000765 61.501427,133.905522 61.438730,133.826587"/>
    <poly id="pothole_4"
          color="orange"
          fill="1"
          layer="10"
          lineWidth="1.5"
          shape="63.610963,163.780169 63.518986,163.836145 63.473179,163.925425 63.382609,163.869158 63.428864,163.963296 63.503032,164.042471 63.585342,164.109689 63.685583,164.102913 63.779170,164.056707 63.762488,163.957840 63.672007,163.902103 63.655362,163.803131"/>
    <poly id="pothole_6"
          color="orange"
          fill="1"
          layer="10"
          lineWidth="1.5"
          shape="70.181091,201.542313 70.086093,201.585343 70.069968,201.688462 70.177557,201.663611 70.214849,201.567678"/>

    <!-- Low again (L) -->
    <poly id="pothole_5"
          color="orange"
          fill="1"
          layer="10"
          lineWidth="1.0"
          shape="71.316603,199.901712 71.290792,200.006348 71.242403,200.093903 71.304301,200.176137 71.330144,200.071613 71.326264,199.971132"/>

</additional>

