<?xml version="1.0" encoding="UTF-8"?>

<!-- generated on 2025-07-17 15:05:13 by Eclipse SUMO GUI Version 1.23.1
<sumoConfiguration xmlns:xsi="http://www.w3.org/2001/XMLSchema-instance" xsi:noNamespaceSchemaLocation="http://sumo.dlr.de/xsd/sumoConfiguration.xsd">

    <input>
        <net-file value="scenario/pothole_Brussel_rural/osm_withProjParam.net.xml"/>
        <route-files value="scenario/pothole_Brussel_rural/osm.passenger.trips.xml"/>
        <additional-files value="scenario/pothole_Brussel_rural/osm.poly.xml.gz,scenario/pothole_Brussel_rural/output.add.xml,scenario/pothole_Brussel_rural/ potholes.add.xml"/>
    </input>

    <output>
        <tripinfo-output value="scenario/pothole_Brussel_rural/tripinfos.xml"/>
        <statistic-output value="scenario/pothole_Brussel_rural/stats.xml"/>
    </output>

    <processing>
        <ignore-route-errors value="true"/>
        <tls.actuated.jam-threshold value="30"/>
    </processing>

    <routing>
        <device.rerouting.adaptation-steps value="18"/>
        <device.rerouting.adaptation-interval value="10"/>
    </routing>

    <report>
        <verbose value="true"/>
        <duration-log.statistics value="true"/>
        <no-step-log value="true"/>
    </report>

    <gui_only>
        <gui-settings-file value="scenario/pothole_Brussel_rural/osm.view.xml"/>
    </gui_only>

</sumoConfiguration>
