<?xml version="1.0" encoding="UTF-8"?>

<!-- generated on 04/04/19 12:59:26 by Eclipse SUMO netedit Version 1.1.0
<configuration xmlns:xsi="http://www.w3.org/2001/XMLSchema-instance" xsi:noNamespaceSchemaLocation="http://sumo.dlr.de/xsd/netconvertConfiguration.xsd">

    <input>
        <sumo-net-file value="D:\RedouaneS%20folder\calibrated%20traffic\sumo\A2_GO2GW_v2_MM.net.xml"/>
    </input>

    <output>
        <output-file value="D:\RedouaneS%20folder\calibrated%20traffic\sumo\A2_GO2GW_v2_MM.net.xml"/>
    </output>

    <processing>
        <geometry.max-grade.fix value="false"/>
        <offset.disable-normalization value="true"/>
        <lefthand value="false"/>
    </processing>

    <junctions>
        <no-turnarounds value="true"/>
        <junctions.corner-detail value="5"/>
        <junctions.limit-turn-speed value="5.5"/>
        <rectangular-lane-cut value="true"/>
    </junctions>

    <pedestrian>
        <walkingareas value="false"/>
    </pedestrian>

</configuration>
-->

<net version="1.1" junctionCornerDetail="5" rectangularLaneCut="true" limitTurnSpeed="5.50" xmlns:xsi="http://www.w3.org/2001/XMLSchema-instance" xsi:noNamespaceSchemaLocation="http://sumo.dlr.de/xsd/net_file.xsd">

    <location netOffset="-531721.08,-5205448.90" convBoundary="0.00,0.00,4810.70,1782.88" origBoundary="15.409523,46.974847,15.507352,47.034090" projParameter="+proj=utm +zone=33 +ellps=WGS84 +datum=WGS84 +units=m +no_defs"/>

    <type id="bidirectional" priority="1" speed="1.39" disallow="tram rail_urban rail rail_electric pedestrian ship" width="3.65"/>
    <type id="border" priority="0" speed="1.39" disallow="all" discard="1" width="0.10"/>
    <type id="driving" priority="1" speed="27.77" disallow="tram rail_urban rail rail_electric pedestrian ship" width="3.65"/>
    <type id="entry" priority="1" speed="22.22" disallow="tram rail_urban rail rail_electric pedestrian ship" width="3.65"/>
    <type id="exit" priority="1" speed="22.22" disallow="tram rail_urban rail rail_electric pedestrian ship" width="3.65"/>
    <type id="median" priority="0" speed="1.39" disallow="all" discard="1" width="0.10"/>
    <type id="mwyEntry" priority="1" speed="22.22" allow="private emergency authority army vip passenger hov taxi bus coach delivery truck trailer motorcycle evehicle custom1 custom2" width="3.65"/>
    <type id="mwyExit" priority="1" speed="22.22" allow="private emergency authority army vip passenger hov taxi bus coach delivery truck trailer motorcycle evehicle custom1 custom2" width="3.65"/>
    <type id="none" priority="0" speed="1.39" disallow="all" discard="1" width="1.00"/>
    <type id="offRamp" priority="1" speed="22.22" allow="private emergency authority army vip passenger hov taxi bus coach delivery truck trailer motorcycle evehicle custom1 custom2" width="3.65"/>
    <type id="onRamp" priority="1" speed="22.22" allow="private emergency authority army vip passenger hov taxi bus coach delivery truck trailer motorcycle evehicle custom1 custom2" width="3.65"/>
    <type id="parking" priority="1" speed="1.39" disallow="tram rail_urban rail rail_electric pedestrian ship" width="2.50"/>
    <type id="rail" priority="3" speed="33.33" allow="rail_urban rail rail_electric" width="3.65"/>
    <type id="restricted" priority="0" speed="13.89" disallow="all" width="3.65"/>
    <type id="roadWorks" priority="0" speed="1.39" allow="authority" width="3.65"/>
    <type id="shoulder" priority="0" speed="1.39" disallow="all" discard="1" width="1.00"/>
    <type id="special1" priority="1" speed="22.22" allow="custom1" discard="1" width="3.65"/>
    <type id="special2" priority="1" speed="22.22" allow="custom2" discard="1" width="3.65"/>
    <type id="special3" priority="1" speed="22.22" allow="custom1 custom2" discard="1" width="3.65"/>
    <type id="stop" priority="1" speed="13.89" disallow="tram rail_urban rail rail_electric pedestrian ship" width="3.65"/>
    <type id="tram" priority="2" speed="13.89" allow="tram" width="3.65"/>

    <edge id=":5004.2911.00_0" function="internal">
        <lane id=":5004.2911.00_0_0" index="0" disallow="tram rail_urban rail rail_electric pedestrian ship" speed="27.77" length="8.00" width="3.50" shape="2044.23,992.04,-11.84 2036.98,988.66,-11.82"/>
        <lane id=":5004.2911.00_0_1" index="1" disallow="tram rail_urban rail rail_electric pedestrian ship" speed="27.77" length="8.00" width="3.50" shape="2045.71,988.87,-11.84 2038.46,985.49,-11.82"/>
        <lane id=":5004.2911.00_0_2" index="2" disallow="tram rail_urban rail rail_electric pedestrian ship" speed="27.77" length="8.00" width="3.50" shape="2047.19,985.69,-11.84 2039.94,982.32,-11.82"/>
    </edge>
    <edge id=":5006.275.00_0" function="internal">
        <lane id=":5006.275.00_0_0" index="0" disallow="tram rail_urban rail rail_electric pedestrian ship" speed="27.77" length="8.00" width="3.50" shape="1180.79,592.56,-7.46 1173.53,589.22,-7.45"/>
        <lane id=":5006.275.00_0_1" index="1" disallow="tram rail_urban rail rail_electric pedestrian ship" speed="27.77" length="8.00" width="3.50" shape="1182.26,589.38,-7.46 1174.99,586.04,-7.45"/>
        <lane id=":5006.275.00_0_2" index="2" disallow="tram rail_urban rail rail_electric pedestrian ship" speed="27.77" length="8.00" width="3.50" shape="1183.72,586.21,-7.46 1176.45,582.86,-7.45"/>
    </edge>
    <edge id=":6001_0" function="internal">
        <lane id=":6001_0_0" index="0" disallow="tram rail_urban rail rail_electric pedestrian ship" speed="22.22" length="8.49" width="3.50" shape="1864.23,912.52,-5.68 1856.36,909.34,-5.68"/>
    </edge>
    <edge id=":6001_1" function="internal">
        <lane id=":6001_1_0" index="0" disallow="tram rail_urban rail rail_electric pedestrian ship" speed="27.77" length="8.65" width="3.50" shape="1865.67,909.33,-5.68 1857.78,905.82,-5.68"/>
        <lane id=":6001_1_1" index="1" disallow="tram rail_urban rail rail_electric pedestrian ship" speed="27.77" length="8.65" width="3.50" shape="1867.12,906.14,-5.68 1859.21,902.62,-5.68"/>
        <lane id=":6001_1_2" index="2" disallow="tram rail_urban rail rail_electric pedestrian ship" speed="27.77" length="8.65" width="3.50" shape="1868.56,902.95,-5.68 1860.64,899.43,-5.68"/>
    </edge>
    <edge id=":gneJ3_0" function="internal">
        <lane id=":gneJ3_0_0" index="0" disallow="tram rail_urban rail rail_electric pedestrian ship" speed="24.99" length="17.31" width="3.50" shape="1460.67,726.04,-7.50 1445.09,718.52,-7.50"/>
    </edge>
    <edge id=":gneJ3_1" function="internal">
        <lane id=":gneJ3_1_0" index="0" disallow="tram rail_urban rail rail_electric pedestrian ship" speed="27.77" length="16.99" width="3.50" shape="1462.14,722.92,-7.50 1446.72,715.42,-7.50"/>
        <lane id=":gneJ3_1_1" index="1" disallow="tram rail_urban rail rail_electric pedestrian ship" speed="27.77" length="16.99" width="3.50" shape="1463.63,719.75,-7.50 1448.36,712.31,-7.50"/>
        <lane id=":gneJ3_1_2" index="2" disallow="tram rail_urban rail rail_electric pedestrian ship" speed="27.77" length="16.99" width="3.50" shape="1465.12,716.58,-7.50 1449.99,709.21,-7.50"/>
    </edge>

    <edge id="-4001.0.00" from="6001" to="4001.end" priority="1" type="exit" length="230.07" shape="1863.27,909.97,-4.64 1850.24,905.27,-5.65 1848.33,904.60,-5.79 1846.41,903.95,-5.92 1844.48,903.33,-6.05 1842.56,902.72,-6.17 1840.62,902.13,-6.29 1838.69,901.57,-6.40 1836.75,901.02,-6.51 1834.81,900.48,-6.61 1832.86,899.97,-6.70 1830.91,899.46,-6.79 1829.20,899.03,-6.86 1827.01,898.50,-6.95 1825.05,898.04,-7.02 1823.36,897.65,-7.08 1821.14,897.16,-7.15 1819.18,896.73,-7.21 1817.21,896.31,-7.27 1815.25,895.91,-7.32 1813.28,895.51,-7.36 1811.32,895.12,-7.40 1809.35,894.73,-7.44 1807.38,894.35,-7.47 1805.42,893.98,-7.49 1803.45,893.61,-7.52 1801.48,893.24,-7.54 1799.51,892.88,-7.55 1797.54,892.51,-7.56 1795.57,892.15,-7.57 1793.61,891.79,-7.58 1791.64,891.43,-7.58 1789.67,891.07,-7.58 1787.71,890.71,-7.57 1785.74,890.34,-7.56 1783.78,889.97,-7.55 1781.82,889.60,-7.54 1779.86,889.22,-7.52 1777.90,888.84,-7.50 1775.94,888.45,-7.48 1773.99,888.05,-7.46 1772.03,887.66,-7.43 1770.07,887.26,-7.40 1768.12,886.85,-7.37 1766.17,886.44,-7.33 1764.21,886.03,-7.30 1762.26,885.61,-7.26 1760.31,885.19,-7.22 1758.36,884.76,-7.18 1756.41,884.34,-7.14 1754.46,883.90,-7.09 1752.51,883.47,-7.05 1750.56,883.03,-7.00 1748.61,882.59,-6.95 1746.66,882.14,-6.91 1744.72,881.70,-6.86 1742.77,881.25,-6.80 1740.82,880.79,-6.75 1738.88,880.34,-6.70 1736.93,879.88,-6.65 1734.99,879.42,-6.59 1733.05,878.96,-6.54 1731.10,878.49,-6.49 1729.16,878.02,-6.43 1727.22,877.55,-6.38 1725.27,877.08,-6.32 1723.33,876.61,-6.27 1721.39,876.14,-6.21 1719.45,875.66,-6.16 1717.50,875.18,-6.11 1715.56,874.71,-6.06 1713.62,874.23,-6.00 1711.68,873.75,-5.95 1709.74,873.26,-5.90 1707.80,872.78,-5.85 1705.87,872.29,-5.80 1703.93,871.80,-5.76 1702.00,871.31,-5.71 1700.07,870.81,-5.66 1698.14,870.30,-5.62 1696.21,869.79,-5.58 1694.29,869.28,-5.54 1692.37,868.75,-5.50 1690.45,868.22,-5.46 1688.53,867.68,-5.43 1686.62,867.13,-5.40 1684.71,866.58,-5.37 1682.80,866.01,-5.34 1680.90,865.44,-5.31 1679.00,864.85,-5.29 1677.11,864.25,-5.27 1675.22,863.64,-5.25 1673.34,863.01,-5.23 1671.46,862.38,-5.22 1669.58,861.73,-5.21 1667.71,861.06,-5.20 1665.84,860.38,-5.20 1663.98,859.69,-5.20 1662.13,858.97,-5.20 1660.28,858.25,-5.20 1658.44,857.50,-5.21 1656.60,856.74,-5.22 1654.77,855.96,-5.23 1652.95,855.16,-5.25 1651.13,854.34,-5.27 1649.32,853.50,-5.29 1647.52,852.64,-5.32 1645.72,851.75,-5.36 1643.93,850.85,-5.39 1642.15,849.92,-5.44 1641.48,849.57,-5.48">
        <lane id="-4001.0.00_0" index="0" disallow="tram rail_urban rail rail_electric pedestrian ship" speed="22.22" length="230.07" width="3.50" shape="1856.36,909.34,-5.68 1849.65,906.92,-5.65 1847.76,906.25,-5.79 1845.86,905.61,-5.92 1843.95,905.00,-6.05 1842.04,904.39,-6.17 1840.12,903.81,-6.29 1838.21,903.25,-6.40 1836.28,902.70,-6.51 1834.35,902.17,-6.61 1832.42,901.66,-6.70 1830.47,901.15,-6.79 1828.78,900.73,-6.86 1826.60,900.20,-6.95 1824.65,899.74,-7.02 1822.98,899.36,-7.08 1820.76,898.87,-7.15 1818.81,898.44,-7.21 1816.85,898.02,-7.27 1814.90,897.62,-7.32 1812.94,897.23,-7.36 1810.98,896.84,-7.40 1809.01,896.45,-7.44 1807.05,896.07,-7.47 1805.10,895.70,-7.49 1803.13,895.33,-7.52 1801.16,894.96,-7.54 1799.19,894.60,-7.55 1797.22,894.23,-7.56 1795.25,893.87,-7.57 1793.29,893.51,-7.58 1791.33,893.15,-7.58 1789.35,892.79,-7.58 1787.39,892.43,-7.57 1785.42,892.06,-7.56 1783.46,891.69,-7.55 1781.49,891.32,-7.54 1779.53,890.94,-7.52 1777.56,890.56,-7.50 1775.59,890.17,-7.48 1773.64,889.77,-7.46 1771.68,889.38,-7.43 1769.72,888.97,-7.40 1767.76,888.56,-7.37 1765.81,888.15,-7.33 1763.85,887.74,-7.30 1761.89,887.32,-7.26 1759.94,886.90,-7.22 1757.99,886.47,-7.18 1756.03,886.05,-7.14 1754.08,885.61,-7.09 1752.13,885.18,-7.05 1750.17,884.74,-7.00 1748.22,884.30,-6.95 1746.27,883.85,-6.91 1744.33,883.41,-6.86 1742.37,882.95,-6.80 1740.42,882.49,-6.75 1738.48,882.04,-6.70 1736.53,881.58,-6.65 1734.59,881.12,-6.59 1732.64,880.66,-6.54 1730.69,880.19,-6.49 1728.75,879.72,-6.43 1726.81,879.25,-6.38 1724.86,878.78,-6.32 1722.92,878.31,-6.27 1720.97,877.84,-6.21 1719.03,877.36,-6.16 1717.08,876.88,-6.11 1715.14,876.41,-6.06 1713.20,875.93,-6.00 1711.26,875.45,-5.95 1709.32,874.96,-5.90 1707.37,874.48,-5.85 1705.44,873.99,-5.80 1703.50,873.50,-5.76 1701.57,873.01,-5.71 1699.63,872.50,-5.66 1697.69,871.99,-5.62 1695.76,871.48,-5.58 1693.83,870.97,-5.54 1691.90,870.44,-5.50 1689.98,869.91,-5.46 1688.05,869.36,-5.43 1686.14,868.81,-5.40 1684.22,868.26,-5.37 1682.30,867.69,-5.34 1680.39,867.11,-5.31 1678.48,866.52,-5.29 1676.58,865.92,-5.27 1674.67,865.30,-5.25 1672.78,864.67,-5.23 1670.90,864.04,-5.22 1669.00,863.38,-5.21 1667.12,862.71,-5.20 1665.24,862.02,-5.20 1663.36,861.33,-5.20 1661.50,860.60,-5.20 1659.63,859.88,-5.20 1657.78,859.12,-5.21 1655.92,858.35,-5.22 1654.07,857.57,-5.23 1652.24,856.76,-5.25 1650.40,855.93,-5.27 1648.57,855.08,-5.29 1646.75,854.21,-5.32 1644.94,853.32,-5.36 1643.13,852.41,-5.39 1641.34,851.47,-5.44 1640.67,851.12,-5.48"/>
    </edge>
    <edge id="-4002.0.00" from="4002.begin" to="gneJ3" priority="1" type="entry" length="208.60" shape="1620.05,830.89,-5.50 1618.62,829.43,-5.57 1617.18,827.99,-5.63 1615.73,826.56,-5.69 1614.27,825.15,-5.75 1612.79,823.75,-5.80 1611.31,822.37,-5.86 1609.81,821.00,-5.91 1608.31,819.64,-5.95 1606.80,818.30,-6.00 1605.27,816.98,-6.04 1603.74,815.66,-6.08 1602.20,814.36,-6.12 1600.64,813.07,-6.16 1599.08,811.79,-6.19 1597.52,810.53,-6.22 1595.94,809.27,-6.25 1594.36,808.03,-6.28 1592.77,806.80,-6.30 1591.17,805.57,-6.32 1589.56,804.36,-6.34 1587.95,803.16,-6.36 1586.34,801.96,-6.38 1584.71,800.78,-6.39 1583.08,799.60,-6.41 1581.45,798.43,-6.42 1579.81,797.27,-6.43 1578.16,796.11,-6.43 1576.51,794.97,-6.44 1574.86,793.83,-6.44 1573.20,792.69,-6.45 1571.54,791.56,-6.45 1569.87,790.44,-6.45 1568.21,789.33,-6.45 1566.53,788.21,-6.44 1564.86,787.11,-6.44 1563.18,786.00,-6.44 1561.50,784.90,-6.43 1559.82,783.81,-6.42 1558.14,782.72,-6.41 1556.45,781.63,-6.40 1554.76,780.54,-6.39 1553.08,779.46,-6.38 1551.39,778.37,-6.37 1549.70,777.29,-6.35 1548.01,776.21,-6.34 1546.32,775.13,-6.32 1544.64,774.06,-6.30 1542.95,772.98,-6.29 1541.26,771.90,-6.27 1539.58,770.82,-6.25 1537.89,769.74,-6.23 1536.21,768.66,-6.21 1534.53,767.58,-6.19 1532.85,766.49,-6.17 1531.17,765.40,-6.15 1529.49,764.32,-6.13 1527.82,763.22,-6.11 1526.14,762.13,-6.08 1524.47,761.04,-6.06 1522.79,759.94,-6.04 1521.11,758.85,-6.02 1519.43,757.76,-5.99 1517.76,756.67,-5.97 1516.08,755.57,-5.95 1514.39,754.48,-5.93 1511.02,752.31,-5.88 1509.34,751.23,-5.86 1507.65,750.15,-5.84 1505.95,749.08,-5.81 1504.26,748.00,-5.79 1502.56,746.94,-5.77 1500.85,745.88,-5.75 1499.14,744.82,-5.73 1497.43,743.77,-5.71 1495.72,742.72,-5.69 1493.99,741.69,-5.67 1492.27,740.66,-5.65 1490.54,739.63,-5.64 1488.80,738.62,-5.62 1487.05,737.61,-5.60 1485.31,736.61,-5.59 1483.55,735.62,-5.57 1481.79,734.64,-5.56 1480.02,733.68,-5.55 1478.24,732.72,-5.54 1476.46,731.77,-5.53 1474.66,730.83,-5.52 1472.86,729.91,-5.51 1471.06,729.00,-5.50 1460.93,724.23,-5.54">
        <lane id="-4002.0.00_0" index="0" disallow="tram rail_urban rail rail_electric pedestrian ship" speed="22.22" length="208.60" width="3.50" shape="1618.80,832.11,-5.50 1617.38,830.66,-5.57 1615.95,829.23,-5.63 1614.51,827.81,-5.69 1613.06,826.42,-5.75 1611.59,825.03,-5.80 1610.12,823.66,-5.86 1608.63,822.29,-5.91 1607.14,820.94,-5.95 1605.65,819.62,-6.00 1604.13,818.31,-6.04 1602.60,816.99,-6.08 1601.08,815.70,-6.12 1599.53,814.42,-6.16 1597.98,813.15,-6.19 1596.42,811.89,-6.22 1594.85,810.64,-6.25 1593.28,809.41,-6.28 1591.70,808.19,-6.30 1590.11,806.96,-6.32 1588.51,805.76,-6.34 1586.90,804.56,-6.36 1585.30,803.37,-6.38 1583.68,802.20,-6.39 1582.06,801.02,-6.41 1580.43,799.86,-6.42 1578.80,798.70,-6.43 1577.16,797.55,-6.43 1575.52,796.41,-6.44 1573.87,795.27,-6.44 1572.21,794.13,-6.45 1570.56,793.01,-6.45 1568.90,791.89,-6.45 1567.24,790.79,-6.45 1565.56,789.67,-6.44 1563.90,788.57,-6.44 1562.22,787.46,-6.44 1560.54,786.37,-6.43 1558.87,785.28,-6.42 1557.19,784.19,-6.41 1555.50,783.10,-6.40 1553.81,782.01,-6.39 1552.13,780.93,-6.38 1550.44,779.84,-6.37 1548.76,778.76,-6.35 1547.07,777.68,-6.34 1545.38,776.61,-6.32 1543.70,775.54,-6.30 1542.01,774.45,-6.29 1540.32,773.37,-6.27 1538.64,772.29,-6.25 1536.95,771.21,-6.23 1535.26,770.13,-6.21 1533.58,769.05,-6.19 1531.90,767.96,-6.17 1530.22,766.87,-6.15 1528.54,765.79,-6.13 1526.86,764.68,-6.11 1525.19,763.60,-6.08 1523.51,762.50,-6.06 1521.83,761.41,-6.04 1520.16,760.32,-6.02 1518.48,759.23,-5.99 1516.80,758.13,-5.97 1515.13,757.04,-5.95 1513.44,755.95,-5.93 1510.07,753.78,-5.88 1508.40,752.70,-5.86 1506.71,751.63,-5.84 1505.01,750.56,-5.81 1503.33,749.48,-5.79 1501.64,748.43,-5.77 1499.93,747.37,-5.75 1498.22,746.31,-5.73 1496.51,745.26,-5.71 1494.81,744.22,-5.69 1493.09,743.19,-5.67 1491.37,742.16,-5.65 1489.65,741.14,-5.64 1487.92,740.13,-5.62 1486.18,739.13,-5.60 1484.45,738.13,-5.59 1482.70,737.15,-5.57 1480.95,736.17,-5.56 1479.19,735.22,-5.55 1477.41,734.26,-5.54 1475.64,733.32,-5.53 1473.86,732.38,-5.52 1472.07,731.47,-5.51 1470.29,730.57,-5.50 1460.67,726.04,-7.50"/>
    </edge>