
<routes>


<route edges="-5004.0.00 -5004.2911.00 -5005.0.00 -5006.0.00 -5006.275.00" id="01"/>

	
	<vTypeDistribution id="CV">

	<vType id="PasVeh"    probability="0.74"  vClass="passenger"   latAlignment="center" carFollowModel="Krauss"  accel="2.78575155832444" decel="7.4242582954978" speedFactor="normc(1.19258415333029,0.0914532219686791,0.2,2)" sigma="0.291828266826892" tau="1.0000174781517" minGap="2.37675072198702" lcStrategic="1.952996852913344" lcSpeedGain ="0.886890035386693" lcCooperative="0.952420935253569" lcAssertive="1.61615144554985" lcKeepRight="0.835412652323659"  />

    <vType id="Motorcycle" probability="0.02"  vClass="motorcycle" latAlignment="center" carFollowModel="Krauss" accel="5.99394910890822" decel="9.84837387016638" speedFactor="normc(1.07300149431518,0.134466136035377,0.2,2)" sigma="0.43954413720625" tau="1.03754070710924" minGap="2.50577984722368" lcStrategic="0.985056931947001" lcSpeedGain ="1.03907560291452" lcCooperative="0.999334659379126" lcAssertive="1.05719335475014" lcKeepRight="1.95619593366268" />

    <vType id="Truck"     probability="0.13"   vClass="truck"     latAlignment="center" carFollowModel="Krauss" accel="1.28504760359105" decel="3.81965928734414" speedFactor="normc(1.04304927516425,0.103814265962995,0.2,2)" sigma="0.18609272263991" tau="1.7745371020546" minGap="2.13575079676069" lcStrategic="1.999303839842428" lcSpeedGain ="0.984899499542515" lcCooperative="0.999973113956985" lcAssertive="1.00123438986978" lcKeepRight="1.69563243412621"/>

    <vType id="Trailer"   probability="0.11"  vClass="trailer"    latAlignment="center" carFollowModel="Krauss" accel="1.18579884542718" decel="4.01308866392056" speedFactor="normc(0.865886993097959,0.025406430518917,0.2,2)" sigma="0.0078444787210744" tau="3.4706131274128" minGap="2.18081525683025" lcStrategic="3.0017776031485" lcSpeedGain ="0.967360804907336" lcCooperative="0.836542524078412" lcAssertive="1.15667036761196" lcKeepRight="1.97743910115593" />

	</vTypeDistribution>
	
	

	<flow begin="0" end="3600" id="CVs" route="01" type="CV" vehsPerHour="5040" departLane="best" departPos="last" departSpeed="max" />
	





	
   
</routes>

<!--

<vType id="CV" vClass="passenger" probability="0.9"  latAlignment="center" carFollowModel="Krauss"  accel="2.78575155832444" decel="7.4242582954978" speedFactor="normc(1.19258415333029,0.0914532219686791,0.2,2)" sigma="0.291828266826892" tau="1.0000174781517" minGap="2.37675072198702" lcStrategic="1.952996852913344" lcSpeedGain ="0.886890035386693" lcCooperative="0.952420935253569" lcAssertive="1.61615144554985" lcKeepRight="0.835412652323659"  />


	<flow begin="0" end="1800" id="flow01" route="01" type="CV" vehsPerHour="1260" departLane="2" departPos="last" departSpeed="max" />
	<flow begin="0" end="1800" id="flow02" route="01" type="CV" vehsPerHour="1260" departLane="3" departPos="last" departSpeed="max" />
	<flow begin="0" end="1800" id="flow03" route="01" type="Aggressive" vehsPerHour="1080" departLane="0" departPos="last" departSpeed="max" />

	<flow begin="1800" end="3600" id="flow04" route="01" type="CV" vehsPerHour="1800" departLane="2" departPos="random_free" departSpeed="max" />
	<flow begin="1800" end="3600" id="flow05" route="01" type="CV" vehsPerHour="1800" departLane="3" departPos="random_free" departSpeed="max" />
	<flow begin="1800" end="3600" id="flow06" route="01" type="Aggressive" vehsPerHour="1543" departLane="0" departPos="random_free" departSpeed="max" />    

	<flow begin="3600" end="5400" id="flow07" route="01" type="CV" vehsPerHour="2100" departLane="2" departPos="last" departSpeed="max" />
	<flow begin="3600" end="5400" id="flow08" route="01" type="CV" vehsPerHour="2100" departLane="3" departPos="last" departSpeed="max" />
	<flow begin="3600" end="5400" id="flow09" route="01" type="Aggressive" vehsPerHour="1800" departLane="0" departPos="last" departSpeed="max" />

	<flow begin="5400" end="7200" id="flow10" route="01" type="CV" vehsPerHour="2520" departLane="2" departPos="last" departSpeed="max" />
	<flow begin="5400" end="7200" id="flow11" route="01" type="CV" vehsPerHour="2520" departLane="3" departPos="last" departSpeed="max" />
	<flow begin="5400" end="7200" id="flow12" route="01" type="Aggressive" vehsPerHour="2160" departLane="0" departPos="last" departSpeed="max" />

	<flow begin="7200" end="9000" id="flow13" route="01" type="CV" vehsPerHour="2835" departLane="2" departPos="random_free" departSpeed="max" />
	<flow begin="7200" end="9000" id="flow14" route="01" type="CV" vehsPerHour="2835" departLane="3" departPos="random_free" departSpeed="max" />
	<flow begin="7200" end="9000" id="flow15" route="01" type="Aggressive" vehsPerHour="2430" departLane="0" departPos="random_free" departSpeed="max" />  	



50% 3600,3600
40% 2880,4320
30% 2160,5040    2520,2520
20% 1440,5760
10% 720,6480

-->
