<?xml version="1.0" encoding="UTF-8"?>

<!-- generated on 2025-05-22 08:08:46 by Eclipse SUMO netedit Version 1.23.1
-->

<additional xmlns:xsi="http://www.w3.org/2001/XMLSchema-instance" xsi:noNamespaceSchemaLocation="http://sumo.dlr.de/xsd/additional_file.xsd">
    <!-- Shapes -->
    <poly id="po_0" color="red" fill="0" layer="99.00" shape="1526.245696,752.927308 1528.144103,748.456866 1547.250649,757.275272 1544.984809,761.745714 1526.061979,752.988547 1526.245696,752.927308"/>
    <poly id="po_1" color="red" fill="0" layer="99.00" shape="1585.040495,777.258852 1587.506142,771.834427 1612.853001,783.373659 1609.992850,788.995336 1585.237746,777.160227 1585.040495,777.258852"/>
    <poly id="po_2" color="red" fill="0" layer="99.00" shape="1647.455628,809.508186 1648.262567,807.087368 1671.574145,817.667238 1670.229247,820.357036 1647.455628,809.597845 1647.455628,809.508186"/>
    <poly id="po_3" color="red" fill="0" layer="99.00" shape="1763.433481,859.982141 1764.735343,857.378417 1792.074445,869.637617 1790.447118,872.892272 1763.650458,860.199118 1763.433481,859.982141"/>
</additional>
